optran: no such command available in ngspice

Compatibility modes selected: hs a

Warning: m=xx on .subckt line will override multiplier m hierarchy!

Warning: redefinition of .subckt sky130_fd_pr__res_generic_po, ignored
Warning: redefinition of .subckt sky130_fd_pr__res_generic_nd, ignored
Warning: redefinition of .subckt sky130_fd_pr__res_generic_pd, ignored
Warning: redefinition of .subckt sky130_fd_pr__pnp_05v5_w0p68l0p68, ignored
Warning: redefinition of .subckt sky130_fd_pr__model__parasitic__res_po, ignored
Warning: redefinition of .subckt sky130_fd_pr__res_xhigh_po, ignored
Warning: redefinition of .subckt sky130_fd_pr__res_high_po, ignored
Warning: redefinition of .subckt sky130_fd_pr__res_xhigh_po_0p35, ignored
Warning: redefinition of .subckt sky130_fd_pr__res_xhigh_po_0p69, ignored
Warning: redefinition of .subckt sky130_fd_pr__res_xhigh_po_1p41, ignored
Warning: redefinition of .subckt sky130_fd_pr__res_xhigh_po_2p85, ignored
Warning: redefinition of .subckt sky130_fd_pr__res_xhigh_po_5p73, ignored
Warning: redefinition of .subckt sky130_fd_pr__res_xhigh_po__base, ignored
Warning: redefinition of .subckt sky130_fd_pr__res_high_po_0p35, ignored
Warning: redefinition of .subckt sky130_fd_pr__res_high_po_0p69, ignored
Warning: redefinition of .subckt sky130_fd_pr__res_high_po_1p41, ignored
Warning: redefinition of .subckt sky130_fd_pr__res_high_po_2p85, ignored
Warning: redefinition of .subckt sky130_fd_pr__res_high_po_5p73, ignored

Circuit: * /home/tiw.rahul45/esim-workspace/logicwithsram/logicwithsram.cir

option SCALE: Scale is set to 1e-06 for instance and model parameters
Reducing trtol to 1 for xspice 'A' devices
Doing analysis at TEMP = 27.000000 and TNOM = 27.000000

Warning: include: has no value, DC 0 assumed
Warning: v11: no DC value, transient time 0 value used
Warning: v4: no DC value, transient time 0 value used
Warning: v2: no DC value, transient time 0 value used
Warning: v12: no DC value, transient time 0 value used
Warning: v10: no DC value, transient time 0 value used
Warning: v7: no DC value, transient time 0 value used
Warning: v9: no DC value, transient time 0 value used
Warning: v1: no DC value, transient time 0 value used
Warning: v6: no DC value, transient time 0 value used
=============rahul_mux : New Iteration===========
Instance : 0

Inside foo before eval.....
data=0
sel=0
out=0

Inside foo after eval.....
data=0
sel=0
out=0
=============rahul_mux : New Iteration===========
Instance : 0

Inside foo before eval.....
data=0
sel=0
out=0

Inside foo after eval.....
data=0
sel=0
out=0
=============rahul_mux : New Iteration===========
Instance : 0

Inside foo before eval.....
data=0
sel=0
out=0

Inside foo after eval.....
data=2
sel=1
out=1
=============rahul_mux : New Iteration===========
Instance : 0

Inside foo before eval.....
data=2
sel=1
out=1

Inside foo after eval.....
data=2
sel=0
out=0
=============rahul_mux : New Iteration===========
Instance : 0

Inside foo before eval.....
data=2
sel=0
out=0

Inside foo after eval.....
data=2
sel=0
out=0
=============rahul_mux : New Iteration===========
Instance : 0

Inside foo before eval.....
data=2
sel=0
out=0

Inside foo after eval.....
data=2
sel=0
out=0
=============rahul_mux : New Iteration===========
Instance : 0

Inside foo before eval.....
data=2
sel=0
out=0

Inside foo after eval.....
data=0
sel=0
out=0
=============rahul_mux : New Iteration===========
Instance : 0

Inside foo before eval.....
data=0
sel=0
out=0

Inside foo after eval.....
data=1
sel=0
out=1
=============rahul_mux : New Iteration===========
Instance : 0

Inside foo before eval.....
data=1
sel=0
out=1

Inside foo after eval.....
data=1
sel=1
out=0
=============rahul_mux : New Iteration===========
Instance : 0

Inside foo before eval.....
data=1
sel=1
out=0

Inside foo after eval.....
data=1
sel=1
out=0
=============rahul_mux : New Iteration===========
Instance : 0

Inside foo before eval.....
data=1
sel=1
out=0

Inside foo after eval.....
data=2
sel=1
out=1
=============rahul_mux : New Iteration===========
Instance : 0

Inside foo before eval.....
data=2
sel=1
out=1

Inside foo after eval.....
data=2
sel=0
out=0
=============rahul_mux : New Iteration===========
Instance : 0

Inside foo before eval.....
data=2
sel=0
out=0

Inside foo after eval.....
data=2
sel=1
out=1

No. of Data Rows : 230
ERROR: (internal)  This operation is not defined for display type PrinterOnly.
Can't open viewport for graphics.
ERROR: (internal)  This operation is not defined for display type PrinterOnly.
Can't open viewport for graphics.
ERROR: (internal)  This operation is not defined for display type PrinterOnly.
Can't open viewport for graphics.
ERROR: (internal)  This operation is not defined for display type PrinterOnly.
Can't open viewport for graphics.
ERROR: (internal)  This operation is not defined for display type PrinterOnly.
Can't open viewport for graphics.
ERROR: (internal)  This operation is not defined for display type PrinterOnly.
Can't open viewport for graphics.
ERROR: (internal)  This operation is not defined for display type PrinterOnly.
Can't open viewport for graphics.
ERROR: (internal)  This operation is not defined for display type PrinterOnly.
Can't open viewport for graphics.
ERROR: (internal)  This operation is not defined for display type PrinterOnly.
Can't open viewport for graphics.
ERROR: (internal)  This operation is not defined for display type PrinterOnly.
Can't open viewport for graphics.
ERROR: (internal)  This operation is not defined for display type PrinterOnly.
Can't open viewport for graphics.
ERROR: (internal)  This operation is not defined for display type PrinterOnly.
Can't open viewport for graphics.
ERROR: (internal)  This operation is not defined for display type PrinterOnly.
Can't open viewport for graphics.
binary raw file "/home/tiw.rahul45/eSim-Workspace/LOGICwithSRAM/LOGICwithSRAM.raw"
Reducing trtol to 1 for xspice 'A' devices
Doing analysis at TEMP = 27.000000 and TNOM = 27.000000

Warning: include: has no value, DC 0 assumed
Warning: v11: no DC value, transient time 0 value used
Warning: v4: no DC value, transient time 0 value used
Warning: v2: no DC value, transient time 0 value used
Warning: v12: no DC value, transient time 0 value used
Warning: v10: no DC value, transient time 0 value used
Warning: v7: no DC value, transient time 0 value used
Warning: v9: no DC value, transient time 0 value used
Warning: v1: no DC value, transient time 0 value used
Warning: v6: no DC value, transient time 0 value used
No. of Data Columns : 107  
=============rahul_mux : New Iteration===========
Instance : 1

Inside foo before eval.....
data=0
sel=0
out=0

Inside foo after eval.....
data=0
sel=0
out=0
=============rahul_mux : New Iteration===========
Instance : 1

Inside foo before eval.....
data=0
sel=0
out=0

Inside foo after eval.....
data=0
sel=0
out=0
=============rahul_mux : New Iteration===========
Instance : 1

Inside foo before eval.....
data=0
sel=0
out=0

Inside foo after eval.....
data=2
sel=1
out=1
=============rahul_mux : New Iteration===========
Instance : 1

Inside foo before eval.....
data=2
sel=1
out=1

Inside foo after eval.....
data=2
sel=0
out=0
=============rahul_mux : New Iteration===========
Instance : 1

Inside foo before eval.....
data=2
sel=0
out=0

Inside foo after eval.....
data=2
sel=0
out=0
=============rahul_mux : New Iteration===========
Instance : 1

Inside foo before eval.....
data=2
sel=0
out=0

Inside foo after eval.....
data=0
sel=0
out=0
=============rahul_mux : New Iteration===========
Instance : 1

Inside foo before eval.....
data=0
sel=0
out=0

Inside foo after eval.....
data=1
sel=0
out=1
=============rahul_mux : New Iteration===========
Instance : 1

Inside foo before eval.....
data=1
sel=0
out=1

Inside foo after eval.....
data=1
sel=1
out=0
=============rahul_mux : New Iteration===========
Instance : 1

Inside foo before eval.....
data=1
sel=1
out=0

Inside foo after eval.....
data=1
sel=1
out=0
=============rahul_mux : New Iteration===========
Instance : 1

Inside foo before eval.....
data=1
sel=1
out=0

Inside foo after eval.....
data=2
sel=1
out=1
=============rahul_mux : New Iteration===========
Instance : 1

Inside foo before eval.....
data=2
sel=1
out=1

Inside foo after eval.....
data=2
sel=0
out=0
=============rahul_mux : New Iteration===========
Instance : 1

Inside foo before eval.....
data=2
sel=0
out=0

Inside foo after eval.....
data=2
sel=1
out=1

No. of Data Rows : 224

Total analysis time (seconds) = 0.10414

Total CPU time (seconds) = 11.775 

Total DRAM available = 257855.305 MB.
DRAM currently available = 224972.809 MB.
Maximum ngspice program size =  393.762 MB.
Current ngspice program size =  330.414 MB.

Shared ngspice pages =    8.816 MB.
Text (code) pages =    6.285 MB.
Stack = 0 bytes.
Library pages =  322.422 MB.

